--------- BEAMDYN with OpenFAST INPUT FILE -------------------------------------------
Generated with AeroElasticSE FAST driver
---------------------- SIMULATION CONTROL --------------------------------------
False                  Echo        - Echo input data to "<RootName>.ech" (flag)
True                   QuasiStaticInit - Use quasistatic pre-conditioning with centripetal accelerations in initialization (flag) [dynamic solve only]
0.0                    rhoinf      - Numerical damping parameter for generalized-alpha integrator
2                      quadrature  - Quadrature method: 1=Gaussian; 2=Trapezoidal (switch)
2                      refine      - Refinement factor for trapezoidal quadrature (-). DEFAULT = 1 [used only when quadrature=2]
DEFAULT                n_fact      - Factorization frequency (-). DEFAULT = 5
DEFAULT                  DTBeam      - Time step size (s).
DEFAULT                  load_retries - Number of factored load retries before quitting the aimulation
DEFAULT                  NRMax       - Max number of iterations in Newton-Ralphson algorithm (-). DEFAULT = 10
DEFAULT                  stop_tol    - Tolerance for stopping criterion (-)
DEFAULT                tngt_stf_fd - Flag to use finite differenced tangent stiffness matrix (-)
DEFAULT                tngt_stf_comp - Flag to compare analytical finite differenced tangent stiffness matrix  (-)
DEFAULT                  tngt_stf_pert - perturbation size for finite differencing (-)
DEFAULT                  tngt_stf_difftol - Maximum allowable relative difference between analytical and fd tangent stiffness (-)
True                   RotStates   - Orient states in the rotating frame during linearization? (flag) [used only when linearizing]
---------------------- GEOMETRY PARAMETER --------------------------------------
1                      member_total - Total number of members (-)
50                     kp_total    - Total number of key points (-) [must be at least 3]
1 50                               - Member number; Number of key points in this member
        kp_xr                 kp_yr                 kp_zr             initial_twist    
         (m)                   (m)                   (m)                  (deg)        
 0.00000000000000e+00  0.00000000000000e+00  0.00000000000000e+00  1.55946000000000e+01
 1.83726000000000e-02  0.00000000000000e+00  2.38776000000000e+00  1.55877000000000e+01
 4.22062000000000e-02  0.00000000000000e+00  4.77551000000000e+00  1.54108000000000e+01
 7.13101000000000e-02  0.00000000000000e+00  7.16327000000000e+00  1.49486000000000e+01
 1.03610000000000e-01  0.00000000000000e+00  9.55102000000000e+00  1.42585000000000e+01
 1.37050000000000e-01  0.00000000000000e+00  1.19388000000000e+01  1.33971000000000e+01
 1.69613000000000e-01  0.00000000000000e+00  1.43265000000000e+01  1.24220000000000e+01
 1.99102000000000e-01  0.00000000000000e+00  1.67143000000000e+01  1.13946000000000e+01
 2.23601000000000e-01  0.00000000000000e+00  1.91020000000000e+01  1.03710000000000e+01
 2.41069000000000e-01  0.00000000000000e+00  2.14898000000000e+01  9.40400000000000e+00
 2.49238000000000e-01  0.00000000000000e+00  2.38776000000000e+01  8.55152000000000e+00
 2.50309000000000e-01  0.00000000000000e+00  2.62653000000000e+01  7.83315000000000e+00
 2.49413000000000e-01  0.00000000000000e+00  2.86531000000000e+01  7.19135000000000e+00
 2.47571000000000e-01  0.00000000000000e+00  3.10408000000000e+01  6.55163000000000e+00
 2.44817000000000e-01  0.00000000000000e+00  3.34286000000000e+01  5.93400000000000e+00
 2.41329000000000e-01  0.00000000000000e+00  3.58163000000000e+01  5.34609000000000e+00
 2.36990000000000e-01  0.00000000000000e+00  3.82041000000000e+01  4.79633000000000e+00
 2.32446000000000e-01  0.00000000000000e+00  4.05918000000000e+01  4.29659000000000e+00
 2.25312000000000e-01  0.00000000000000e+00  4.29796000000000e+01  3.84696000000000e+00
 2.11013000000000e-01  0.00000000000000e+00  4.53673000000000e+01  3.44534000000000e+00
 1.86954000000000e-01  0.00000000000000e+00  4.77551000000000e+01  3.07691000000000e+00
 1.47931000000000e-01  0.00000000000000e+00  5.01429000000000e+01  2.73356000000000e+00
 9.91710000000000e-02  0.00000000000000e+00  5.25306000000000e+01  2.41223000000000e+00
 4.11154000000000e-02  0.00000000000000e+00  5.49184000000000e+01  2.11169000000000e+00
-2.23395000000000e-02  0.00000000000000e+00  5.73061000000000e+01  1.82840000000000e+00
-8.88277000000000e-02  0.00000000000000e+00  5.96939000000000e+01  1.55878000000000e+00
-1.58920000000000e-01  0.00000000000000e+00  6.20816000000000e+01  1.30244000000000e+00
-2.39251000000000e-01  0.00000000000000e+00  6.44694000000000e+01  1.06443000000000e+00
-3.36643000000000e-01  0.00000000000000e+00  6.68571000000000e+01  8.43446000000000e-01
-4.46936000000000e-01  0.00000000000000e+00  6.92449000000000e+01  6.36564000000000e-01
-5.67957000000000e-01  0.00000000000000e+00  7.16327000000000e+01  4.37029000000000e-01
-6.97521000000000e-01  0.00000000000000e+00  7.40204000000000e+01  2.39657000000000e-01
-8.31916000000000e-01  0.00000000000000e+00  7.64082000000000e+01  3.96777000000000e-02
-9.69965000000000e-01  0.00000000000000e+00  7.87959000000000e+01 -1.72828000000000e-01
-1.10909000000000e+00  0.00000000000000e+00  8.11837000000000e+01 -4.07084000000000e-01
-1.25513000000000e+00  0.00000000000000e+00  8.35714000000000e+01 -6.80378000000000e-01
-1.41034000000000e+00  0.00000000000000e+00  8.59592000000000e+01 -9.99294000000000e-01
-1.57330000000000e+00  0.00000000000000e+00  8.83469000000000e+01 -1.32053000000000e+00
-1.74350000000000e+00  0.00000000000000e+00  9.07347000000000e+01 -1.62330000000000e+00
-1.91945000000000e+00  0.00000000000000e+00  9.31224000000000e+01 -1.88437000000000e+00
-2.10009000000000e+00  0.00000000000000e+00  9.55102000000000e+01 -2.08623000000000e+00
-2.28550000000000e+00  0.00000000000000e+00  9.78980000000000e+01 -2.16400000000000e+00
-2.47569000000000e+00  0.00000000000000e+00  1.00286000000000e+02 -2.17584000000000e+00
-2.67342000000000e+00  0.00000000000000e+00  1.02673000000000e+02 -2.15530000000000e+00
-2.87783000000000e+00  0.00000000000000e+00  1.05061000000000e+02 -2.10291000000000e+00
-3.09009000000000e+00  0.00000000000000e+00  1.07449000000000e+02 -2.01840000000000e+00
-3.30846000000000e+00  0.00000000000000e+00  1.09837000000000e+02 -1.89674000000000e+00
-3.53371000000000e+00  0.00000000000000e+00  1.12224000000000e+02 -1.72433000000000e+00
-3.76350000000000e+00  0.00000000000000e+00  1.14612000000000e+02 -1.50813000000000e+00
-4.00000000000000e+00  0.00000000000000e+00  1.17000000000000e+02 -1.24239000000000e+00
---------------------- MESH PARAMETER ------------------------------------------
10                     order_elem  - Order of interpolation (basis) function (-)
---------------------- MATERIAL PARAMETER --------------------------------------
"iea_15mw_idling_extreme_wind_BeamDyn_Blade.dat" BldFile     - Name of file containing properties for blade (quoted string)
---------------------- PITCH ACTUATOR PARAMETERS -------------------------------
False                  UsePitchAct - Whether a pitch actuator should be used (flag)
200.0                  PitchJ      - Pitch actuator inertia (kg-m^2) [used only when UsePitchAct is true]
20000000.0             PitchK      - Pitch actuator stiffness (kg-m^2/s^2) [used only when UsePitchAct is true]
500000.0               PitchC      - Pitch actuator damping (kg-m^2/s) [used only when UsePitchAct is true]
---------------------- OUTPUTS -------------------------------------------------
False                  SumPrint    - Print summary data to "<RootName>.sum" (flag)
"ES10.3E2"             OutFmt      - Format used for text tabular output, excluding the time channel.
0                      NNodeOuts   - Number of nodes to output to file [0 - 9] (-)
0    OutNd          - Nodes whose values will be output  (-) OutNd       - Nodes whose values will be output  (-)
          OutList            - The next line(s) contains a list of output parameters. See OutListParameters.xlsx for a listing of available output channels, (-)
"RootFxr"
"RootFyr"
"RootFzr"
"RootMxr"
"RootMyr"
"RootMzr"
"TipRDxr"
"TipRDyr"
"TipRDzr"
"TipTDxr"
"TipTDyr"
"TipTDzr"
END of input file (the word "END" must appear in the first 3 columns of this last OutList line)
