---------TurbSim v2.00.* Profile Input File------------------------
Made up profiles
-------- User-Defined Profiles (Used only with USR wind profile or USRVKM spectral model) -------------------
50               NumUSRz        - Number of Heights
1.092           StdScale1      - u-component scaling factor for the input standard deviation
1.0             StdScale2      - v-component scaling factor for the input standard deviation
0.534           StdScale3      - w-component scaling factor for the input standard deviation
-----------------------------------------------------------------------------------
Height    Wind Speed       Wind --Angle--        Standard Deviation    Length Scale
 (m)        (m/s)      (deg, cntr-clockwise )              (m/s)              (m)
-----------------------------------------------------------------------------------
10    41.3154    17.817    0.095842    283.12
16.3265    42.957    17.1471    0.0962335    297.735
22.6531    44.831    16.3824    0.0966454    314.421
28.9796    46.7051    15.6177    0.0970243    331.106
35.3061    48.3148    14.8071    0.0970776    348.519
41.6327    49.4982    13.9228    0.096659    367.105
47.9592    50.6816    13.0384    0.0962601    385.691
54.2857    51.8651    12.154    0.0958793    404.277
60.6122    52.8095    11.2516    0.0950707    420.296
66.9388    53.66    10.3423    0.0941164    435.307
73.2653    54.5105    9.43287    0.0931919    450.318
79.5918    55.3611    8.52349    0.0922958    465.328
85.9184    55.9681    7.6649    0.0910509    475.177
92.2449    56.5397    6.8137    0.0897776    484.275
98.5714    57.1112    5.96249    0.0885297    493.374
104.898    57.6828    5.11129    0.0873066    502.472
111.224    58.0671    4.34131    0.0859337    504.443
117.551    58.4154    3.58692    0.0845447    505.047
123.878    58.7637    2.83253    0.0831721    505.65
130.204    59.112    2.07814    0.0818158    506.253
136.531    59.3528    1.38749    0.080543    502.611
142.857    59.5237    0.738218    0.0793228    496.215
149.184    59.6946    0.0889417    0.0781096    489.818
155.51    59.8656    -0.560335    0.0769034    483.422
161.837    60.0172    -1.19339    0.0757522    476.384
168.163    60.0719    -1.74475    0.0748473    466.114
174.49    60.1266    -2.29611    0.073944    455.844
180.816    60.1812    -2.84747    0.0730423    445.575
187.143    60.2359    -3.39883    0.0721423    435.305
193.469    60.2554    -3.90957    0.0714449    425.615
199.796    60.2406    -4.38071    0.0709434    416.488
206.122    60.2257    -4.85186    0.0704417    407.362
212.449    60.2109    -5.323    0.0699398    398.236
218.776    60.1961    -5.79415    0.0694376    389.109
225.102    60.1596    -6.22645    0.0690443    381.667
231.429    60.1096    -6.63471    0.0687181    375.267
237.755    60.0597    -7.04298    0.0683914    368.866
244.082    60.0097    -7.45124    0.0680641    362.466
250.408    59.9597    -7.85951    0.0677363    356.065
256.735    59.8995    -8.24119    0.0674607    350.594
263.061    59.8285    -8.59504    0.0672399    346.096
269.388    59.7575    -8.94889    0.0670186    341.598
275.714    59.6866    -9.30274    0.0667967    337.099
282.041    59.6156    -9.65659    0.0665743    332.601
288.367    59.5436    -10.0055    0.06635    328.182
294.694    59.4632    -10.313    0.0661131    324.427
301.02    59.3828    -10.6206    0.0658755    320.671
307.347    59.3024    -10.9281    0.0656374    316.915
313.673    59.222    -11.2356    0.0653985    313.16
320    59.1416    -11.5432    0.065159    309.404
