---------TurbSim v2.00.* Profile Input File------------------------
Made up profiles
-------- User-Defined Profiles (Used only with USR wind profile or USRVKM spectral model) -------------------
50               NumUSRz        - Number of Heights
1.092           StdScale1      - u-component scaling factor for the input standard deviation
1.0             StdScale2      - v-component scaling factor for the input standard deviation
0.534           StdScale3      - w-component scaling factor for the input standard deviation
-----------------------------------------------------------------------------------
Height    Wind Speed       Wind --Angle--        Standard Deviation    Length Scale
 (m)        (m/s)      (deg, cntr-clockwise )              (m/s)              (m)
-----------------------------------------------------------------------------------
10    45.6397    17.938    4.17774    275.868
16.3265    47.393    17.2952    4.34479    290.276
22.6531    49.4464    16.5423    4.54042    307.151
28.9796    51.4998    15.7895    4.73606    324.026
35.3061    53.3166    14.9943    4.89665    341.308
41.6327    54.6206    14.1073    4.98126    359.473
47.9592    55.9246    13.2203    5.06588    377.639
54.2857    57.2286    12.3333    5.15049    395.804
60.6122    58.3088    11.4267    5.20129    410.895
66.9388    59.2424    10.5073    5.22993    423.97
73.2653    60.176    9.5878    5.25856    437.045
79.5918    61.1095    8.66835    5.2872    450.121
85.9184    61.8278    7.78909    5.28485    458.36
92.2449    62.4581    6.92625    5.26985    464.625
98.5714    63.0884    6.0634    5.25484    470.89
104.898    63.7187    5.20056    5.23984    477.155
111.224    64.1971    4.40082    5.20623    479.214
117.551    64.5844    3.63897    5.16144    478.749
123.878    64.9717    2.87712    5.11665    478.285
130.204    65.359    2.11527    5.07185    477.82
136.531    65.6821    1.38982    5.02423    475.794
142.857    65.88    0.735389    4.97108    470.722
149.184    66.0779    0.0809564    4.91792    465.65
155.51    66.2758    -0.573476    4.86477    460.578
161.837    66.4737    -1.22791    4.81161    455.507
168.163    66.5659    -1.8008    4.76847    448.094
174.49    66.6382    -2.35841    4.72721    440.242
180.816    66.7106    -2.91601    4.68594    432.39
187.143    66.7829    -3.47362    4.64468    424.538
193.469    66.8465    -4.02139    4.60546    416.615
199.796    66.8482    -4.49984    4.58068    408.193
206.122    66.8498    -4.97829    4.55589    399.771
212.449    66.8514    -5.45674    4.53111    391.35
218.776    66.8531    -5.93519    4.50632    382.928
225.102    66.8491    -6.40239    4.48203    374.944
231.429    66.8184    -6.81631    4.4601    369.038
237.755    66.7878    -7.23022    4.43817    363.132
244.082    66.7572    -7.64414    4.41624    357.226
250.408    66.7265    -8.05805    4.39431    351.32
256.735    66.6959    -8.47197    4.37238    345.414
263.061    66.6493    -8.83075    4.35192    341.431
269.388    66.6024    -9.18845    4.3315    337.485
275.714    66.5555    -9.54616    4.31107    333.54
282.041    66.5086    -9.90386    4.29064    329.594
288.367    66.4618    -10.2616    4.27022    325.648
294.694    66.4089    -10.5922    4.25176    322.656
301.02    66.3507    -10.899    4.23504    320.505
307.347    66.2925    -11.2058    4.21832    318.353
313.673    66.2343    -11.5126    4.2016    316.201
320    66.1761    -11.8194    4.18488    314.05
