---------TurbSim v2.00.* Profile Input File------------------------
Made up profiles
-------- User-Defined Profiles (Used only with USR wind profile or USRVKM spectral model) -------------------
50               NumUSRz        - Number of Heights
1.092           StdScale1      - u-component scaling factor for the input standard deviation
1.0             StdScale2      - v-component scaling factor for the input standard deviation
0.534           StdScale3      - w-component scaling factor for the input standard deviation
-----------------------------------------------------------------------------------
Height    Wind Speed       Wind --Angle--        Standard Deviation    Length Scale
 (m)        (m/s)      (deg, cntr-clockwise )              (m/s)              (m)
-----------------------------------------------------------------------------------
10    51.1454    14.2976    0.0872301    378.221
16.3265    53.1295    13.7892    0.0876127    391.894
22.6531    55.4707    13.1894    0.0880289    408.027
28.9796    57.8118    12.5895    0.0884115    424.16
35.3061    59.9022    11.9636    0.0884677    441.336
41.6327    61.3973    11.2757    0.0878309    460.989
47.9592    62.8924    10.5879    0.0872244    480.643
54.2857    64.3875    9.90001    0.0866461    500.296
60.6122    65.6495    9.19528    0.0859198    518.63
66.9388    66.7366    8.4779    0.0850901    535.975
73.2653    67.8237    7.76051    0.0842869    553.321
79.5918    68.9108    7.04312    0.0835091    570.666
85.9184    69.7797    6.34618    0.0826142    585.008
92.2449    70.5377    5.65964    0.0816689    597.825
98.5714    71.2956    4.97309    0.0807436    610.642
104.898    72.0536    4.28654    0.0798378    623.459
111.224    72.671    3.63403    0.078924    633.075
117.551    73.179    3.00799    0.0780035    640.202
123.878    73.687    2.38194    0.0770957    647.329
130.204    74.195    1.75589    0.0762003    654.456
136.531    74.6539    1.14877    0.0753578    659.766
142.857    74.9732    0.595545    0.0746394    659.899
149.184    75.2924    0.042319    0.0739271    660.032
155.51    75.6117    -0.510907    0.0732209    660.166
161.837    75.9309    -1.06413    0.0725205    660.299
168.163    76.1567    -1.56555    0.072035    655.923
174.49    76.3506    -2.04926    0.0716234    650.005
180.816    76.5444    -2.53296    0.071214    644.087
187.143    76.7383    -3.01667    0.0708066    638.169
193.469    76.9314    -3.49986    0.0704029    632.249
199.796    77.0429    -3.92019    0.0702028    626.105
206.122    77.1544    -4.34053    0.0700033    619.961
212.449    77.2659    -4.76087    0.0698044    613.817
218.776    77.3773    -5.1812    0.069606    607.673
225.102    77.4867    -5.59942    0.0694121    601.449
231.429    77.5425    -5.96339    0.0693169    593.167
237.755    77.5983    -6.32736    0.0692219    584.885
244.082    77.6541    -6.69133    0.069127    576.603
250.408    77.7098    -7.0553    0.0690322    568.322
256.735    77.7656    -7.41927    0.0689375    560.04
263.061    77.7911    -7.74391    0.0688524    551.103
269.388    77.81    -8.06006    0.0687694    542.026
275.714    77.8289    -8.37621    0.0686864    532.948
282.041    77.8478    -8.69235    0.0686034    523.87
288.367    77.8668    -9.0085    0.0685205    514.792
294.694    77.8788    -9.31132    0.0684436    506.599
301.02    77.8779    -9.58946    0.0683779    500.046
307.347    77.8771    -9.8676    0.0683122    493.492
313.673    77.8763    -10.1457    0.0682465    486.938
320    77.8755    -10.4239    0.0681808    480.385
