---------TurbSim v2.00.* Profile Input File------------------------
Made up profiles
-------- User-Defined Profiles (Used only with USR wind profile or USRVKM spectral model) -------------------
50               NumUSRz        - Number of Heights
1.092           StdScale1      - u-component scaling factor for the input standard deviation
1.0             StdScale2      - v-component scaling factor for the input standard deviation
0.534           StdScale3      - w-component scaling factor for the input standard deviation
-----------------------------------------------------------------------------------
Height    Wind Speed       Wind --Angle--        Standard Deviation    Length Scale
 (m)        (m/s)      (deg, cntr-clockwise )              (m/s)              (m)
-----------------------------------------------------------------------------------
10    51.1454    14.2976    4.46142    378.221
16.3265    53.1295    13.7892    4.65482    391.894
22.6531    55.4707    13.1894    4.88303    408.027
28.9796    57.8118    12.5895    5.11123    424.16
35.3061    59.9022    11.9636    5.29941    441.336
41.6327    61.3973    11.2757    5.39258    460.989
47.9592    62.8924    10.5879    5.48575    480.643
54.2857    64.3875    9.90001    5.57892    500.296
60.6122    65.6495    9.19528    5.64059    518.63
66.9388    66.7366    8.4779    5.67862    535.975
73.2653    67.8237    7.76051    5.71665    553.321
79.5918    68.9108    7.04312    5.75468    570.666
85.9184    69.7797    6.34618    5.76479    585.008
92.2449    70.5377    5.65964    5.76073    597.825
98.5714    71.2956    4.97309    5.75667    610.642
104.898    72.0536    4.28654    5.75261    623.459
111.224    72.671    3.63403    5.73549    633.075
117.551    73.179    3.00799    5.70822    640.202
123.878    73.687    2.38194    5.68095    647.329
130.204    74.195    1.75589    5.65368    654.456
136.531    74.6539    1.14877    5.62576    659.766
142.857    74.9732    0.595545    5.59596    659.899
149.184    75.2924    0.042319    5.56615    660.032
155.51    75.6117    -0.510907    5.53635    660.166
161.837    75.9309    -1.06413    5.50655    660.299
168.163    76.1567    -1.56555    5.48595    655.923
174.49    76.3506    -2.04926    5.46849    650.005
180.816    76.5444    -2.53296    5.45103    644.087
187.143    76.7383    -3.01667    5.43357    638.169
193.469    76.9314    -3.49986    5.4162    632.249
199.796    77.0429    -3.92019    5.40863    626.105
206.122    77.1544    -4.34053    5.40106    619.961
212.449    77.2659    -4.76087    5.3935    613.817
218.776    77.3773    -5.1812    5.38593    607.673
225.102    77.4867    -5.59942    5.37852    601.449
231.429    77.5425    -5.96339    5.37501    593.167
237.755    77.5983    -6.32736    5.3715    584.885
244.082    77.6541    -6.69133    5.36799    576.603
250.408    77.7098    -7.0553    5.36448    568.322
256.735    77.7656    -7.41927    5.36097    560.04
263.061    77.7911    -7.74391    5.3561    551.103
269.388    77.81    -8.06006    5.35094    542.026
275.714    77.8289    -8.37621    5.34578    532.948
282.041    77.8478    -8.69235    5.34063    523.87
288.367    77.8668    -9.0085    5.33547    514.792
294.694    77.8788    -9.31132    5.3303    506.599
301.02    77.8779    -9.58946    5.32513    500.046
307.347    77.8771    -9.8676    5.31996    493.492
313.673    77.8763    -10.1457    5.31478    486.938
320    77.8755    -10.4239    5.30961    480.385
