---------TurbSim v2.00.* Profile Input File------------------------
Made up profiles
-------- User-Defined Profiles (Used only with USR wind profile or USRVKM spectral model) -------------------
50               NumUSRz        - Number of Heights
1.092           StdScale1      - u-component scaling factor for the input standard deviation
1.0             StdScale2      - v-component scaling factor for the input standard deviation
0.534           StdScale3      - w-component scaling factor for the input standard deviation
-----------------------------------------------------------------------------------
Height    Wind Speed       Wind --Angle--        Standard Deviation    Length Scale
 (m)        (m/s)      (deg, cntr-clockwise )              (m/s)              (m)
-----------------------------------------------------------------------------------
10    30.821    15.104    0.0782092    277.93
16.3265    32.0732    14.5228    0.0796991    292.747
22.6531    33.4851    13.8675    0.0812454    309.455
28.9796    34.897    13.2121    0.0826666    326.162
35.3061    36.1003    12.517    0.0834345    344.771
41.6327    37.0109    11.7661    0.0834119    366.045
47.9592    37.9215    11.0152    0.0833904    387.32
54.2857    38.8321    10.2643    0.0833699    408.595
60.6122    39.5455    9.49795    0.0827595    428.047
66.9388    40.2018    8.72714    0.0820009    446.973
73.2653    40.8581    7.95633    0.0812667    465.899
79.5918    41.5144    7.18551    0.0805557    484.824
85.9184    41.9672    6.46236    0.0794072    497.51
92.2449    42.4107    5.74139    0.0782622    509.911
98.5714    42.8542    5.02041    0.0771409    522.312
104.898    43.2977    4.29943    0.0760426    534.714
111.224    43.5842    3.65656    0.0748311    540.073
117.551    43.8625    3.01781    0.0736281    545.059
123.878    44.1407    2.37906    0.0724403    550.046
130.204    44.419    1.74031    0.0712674    555.032
136.531    44.6052    1.16668    0.0702459    557.734
142.857    44.7601    0.615151    0.0692785    559.661
149.184    44.915    0.0636264    0.0683179    561.587
155.51    45.0699    -0.487898    0.0673638    563.514
161.837    45.1984    -1.0126    0.0665254    563.381
168.163    45.275    -1.48449    0.0659053    559.194
174.49    45.3516    -1.95638    0.0652874    555.008
180.816    45.4282    -2.42827    0.0646715    550.821
187.143    45.5048    -2.90017    0.0640577    546.634
193.469    45.5473    -3.32368    0.0636347    539.848
199.796    45.5758    -3.72749    0.0632893    532.003
206.122    45.6043    -4.1313    0.0629442    524.159
212.449    45.6329    -4.53512    0.0625996    516.314
218.776    45.6614    -4.93893    0.0622554    508.47
225.102    45.6666    -5.29649    0.0620089    502.544
231.429    45.6679    -5.64635    0.0617785    496.937
237.755    45.6692    -5.9962    0.0615482    491.33
244.082    45.6704    -6.34606    0.0613179    485.723
250.408    45.6717    -6.69591    0.0610876    480.116
256.735    45.6608    -7.00917    0.0609394    476.907
263.061    45.6462    -7.31119    0.0608164    474.433
269.388    45.6316    -7.6132    0.0606933    471.96
275.714    45.6169    -7.91521    0.0605701    469.487
282.041    45.6023    -8.21723    0.0604468    467.013
288.367    45.5835    -8.50123    0.0603341    465.832
294.694    45.5591    -8.76056    0.060236    466.42
301.02    45.5347    -9.01989    0.0601377    467.008
307.347    45.5104    -9.27922    0.0600393    467.595
313.673    45.486    -9.53855    0.0599408    468.183
320    45.4616    -9.79788    0.0598422    468.771
