---------TurbSim v2.00.* Profile Input File------------------------
Made up profiles
-------- User-Defined Profiles (Used only with USR wind profile or USRVKM spectral model) -------------------
50               NumUSRz        - Number of Heights
1.092           StdScale1      - u-component scaling factor for the input standard deviation
1.0             StdScale2      - v-component scaling factor for the input standard deviation
0.534           StdScale3      - w-component scaling factor for the input standard deviation
-----------------------------------------------------------------------------------
Height    Wind Speed       Wind --Angle--        Standard Deviation    Length Scale
 (m)        (m/s)      (deg, cntr-clockwise )              (m/s)              (m)
-----------------------------------------------------------------------------------
10    41.3154    17.817    3.95975    283.12
16.3265    42.957    17.1471    4.1339    297.735
22.6531    44.831    16.3824    4.33271    314.421
28.9796    46.7051    15.6177    4.53153    331.106
35.3061    48.3148    14.8071    4.69028    348.519
41.6327    49.4982    13.9228    4.78445    367.105
47.9592    50.6816    13.0384    4.87862    385.691
54.2857    51.8651    12.154    4.97279    404.277
60.6122    52.8095    11.2516    5.02063    420.296
66.9388    53.66    10.3423    5.05029    435.307
73.2653    54.5105    9.43287    5.07994    450.318
79.5918    55.3611    8.52349    5.1096    465.328
85.9184    55.9681    7.6649    5.09594    475.177
92.2449    56.5397    6.8137    5.07599    484.275
98.5714    57.1112    5.96249    5.05604    493.374
104.898    57.6828    5.11129    5.03609    502.472
111.224    58.0671    4.34131    4.98992    504.443
117.551    58.4154    3.58692    4.93871    505.047
123.878    58.7637    2.83253    4.8875    505.65
130.204    59.112    2.07814    4.8363    506.253
136.531    59.3528    1.38749    4.78045    502.611
142.857    59.5237    0.738218    4.72159    496.215
149.184    59.6946    0.0889417    4.66273    489.818
155.51    59.8656    -0.560335    4.60386    483.422
161.837    60.0172    -1.19339    4.54644    476.384
168.163    60.0719    -1.74475    4.49622    466.114
174.49    60.1266    -2.29611    4.446    455.844
180.816    60.1812    -2.84747    4.39578    445.575
187.143    60.2359    -3.39883    4.34556    435.305
193.469    60.2554    -3.90957    4.30494    425.615
199.796    60.2406    -4.38071    4.27367    416.488
206.122    60.2257    -4.85186    4.2424    407.362
212.449    60.2109    -5.323    4.21114    398.236
218.776    60.1961    -5.79415    4.17987    389.109
225.102    60.1596    -6.22645    4.15368    381.667
231.429    60.1096    -6.63471    4.13062    375.267
237.755    60.0597    -7.04298    4.10756    368.866
244.082    60.0097    -7.45124    4.08451    362.466
250.408    59.9597    -7.85951    4.06145    356.065
256.735    59.8995    -8.24119    4.04086    350.594
263.061    59.8285    -8.59504    4.02286    346.096
269.388    59.7575    -8.94889    4.00487    341.598
275.714    59.6866    -9.30274    3.98687    337.099
282.041    59.6156    -9.65659    3.96887    332.601
288.367    59.5436    -10.0055    3.95072    328.182
294.694    59.4632    -10.313    3.9313    324.427
301.02    59.3828    -10.6206    3.91188    320.671
307.347    59.3024    -10.9281    3.89245    316.915
313.673    59.222    -11.2356    3.87303    313.16
320    59.1416    -11.5432    3.85361    309.404
