---------TurbSim v2.00.* Profile Input File------------------------
Made up profiles
-------- User-Defined Profiles (Used only with USR wind profile or USRVKM spectral model) -------------------
50               NumUSRz        - Number of Heights
1.092           StdScale1      - u-component scaling factor for the input standard deviation
1.0             StdScale2      - v-component scaling factor for the input standard deviation
0.534           StdScale3      - w-component scaling factor for the input standard deviation
-----------------------------------------------------------------------------------
Height    Wind Speed       Wind --Angle--        Standard Deviation    Length Scale
 (m)        (m/s)      (deg, cntr-clockwise )              (m/s)              (m)
-----------------------------------------------------------------------------------
10    63.8106    14.3415    0.099088    342.594
16.3265    66.2169    13.8347    0.0994639    358.004
22.6531    69.0509    13.2377    0.0998731    376.154
28.9796    71.885    12.6407    0.10025    394.303
35.3061    74.3931    12.0187    0.100294    413.634
41.6327    76.1472    11.3386    0.0996458    435.695
47.9592    77.9014    10.6585    0.0990266    457.756
54.2857    79.6555    9.97849    0.0984346    479.817
60.6122    81.1229    9.27734    0.0976886    500.837
66.9388    82.3842    8.56103    0.0968398    521.108
73.2653    83.6455    7.84473    0.0960166    541.379
79.5918    84.9068    7.12842    0.0952178    561.65
85.9184    85.8941    6.43015    0.0942901    578.31
92.2449    86.7524    5.74036    0.0933109    593.269
98.5714    87.6108    5.05058    0.0923509    608.229
104.898    88.4692    4.36079    0.0914096    623.188
111.224    89.1525    3.70504    0.0904582    632.83
117.551    89.7124    3.07325    0.0895002    638.728
123.878    90.2724    2.44146    0.0885541    644.625
130.204    90.8324    1.80967    0.0876197    650.523
136.531    91.3261    1.1987    0.0867448    653.709
142.857    91.6596    0.638008    0.0859934    650.346
149.184    91.9932    0.0773159    0.0852475    646.983
155.51    92.3268    -0.483376    0.0845069    643.62
161.837    92.6604    -1.04407    0.0837717    640.258
168.163    92.8762    -1.55096    0.0832009    631.316
174.49    93.0605    -2.04339    0.0826753    620.875
180.816    93.2447    -2.53583    0.0821518    610.435
187.143    93.429    -3.02826    0.0816303    599.994
193.469    93.6071    -3.51691    0.0811237    589.547
199.796    93.6944    -3.9491    0.0808098    579.01
206.122    93.7817    -4.3813    0.0804964    568.472
212.449    93.8691    -4.81349    0.0801836    557.934
218.776    93.9564    -5.24569    0.0798714    547.397
225.102    94.0374    -5.67278    0.0795782    537.139
231.429    94.066    -6.05689    0.0794411    529.238
237.755    94.0946    -6.441    0.0793041    521.337
244.082    94.1233    -6.82511    0.0791672    513.437
250.408    94.1519    -7.20921    0.0790303    505.536
256.735    94.1805    -7.59332    0.0788935    497.635
263.061    94.1809    -7.94019    0.0788436    491.378
269.388    94.1785    -8.28321    0.0788027    485.292
275.714    94.1761    -8.62622    0.0787618    479.205
282.041    94.1736    -8.96923    0.0787209    473.118
288.367    94.1712    -9.31224    0.07868    467.032
294.694    94.1607    -9.63723    0.0786508    461.494
301.02    94.1404    -9.94028    0.0786359    456.624
307.347    94.12    -10.2433    0.0786211    451.754
313.673    94.0997    -10.5464    0.0786062    446.884
320    94.0794    -10.8494    0.0785913    442.014
