---------TurbSim v2.00.* Profile Input File------------------------
Made up profiles
-------- User-Defined Profiles (Used only with USR wind profile or USRVKM spectral model) -------------------
50               NumUSRz        - Number of Heights
1.092           StdScale1      - u-component scaling factor for the input standard deviation
1.0             StdScale2      - v-component scaling factor for the input standard deviation
0.534           StdScale3      - w-component scaling factor for the input standard deviation
-----------------------------------------------------------------------------------
Height    Wind Speed       Wind --Angle--        Standard Deviation    Length Scale
 (m)        (m/s)      (deg, cntr-clockwise )              (m/s)              (m)
-----------------------------------------------------------------------------------
10    45.6397    17.938    0.0915375    275.868
16.3265    47.393    17.2952    0.0916757    290.276
22.6531    49.4464    16.5423    0.0918252    307.151
28.9796    51.4998    15.7895    0.0919627    324.026
35.3061    53.3166    14.9943    0.091841    341.308
41.6327    54.6206    14.1073    0.0911975    359.473
47.9592    55.9246    13.2203    0.0905841    377.639
54.2857    57.2286    12.3333    0.0899986    395.804
60.6122    58.3088    11.4267    0.0892025    410.895
66.9388    59.2424    10.5073    0.0882802    423.97
73.2653    60.176    9.5878    0.0873864    437.045
79.5918    61.1095    8.66835    0.08652    450.121
85.9184    61.8278    7.78909    0.0854769    458.36
92.2449    62.4581    6.92625    0.0843741    464.625
98.5714    63.0884    6.0634    0.0832934    470.89
104.898    63.7187    5.20056    0.082234    477.155
111.224    64.1971    4.40082    0.0810975    479.214
117.551    64.5844    3.63897    0.0799176    478.749
123.878    64.9717    2.87712    0.0787519    478.285
130.204    65.359    2.11527    0.0775999    477.82
136.531    65.6821    1.38982    0.0764931    475.794
142.857    65.88    0.735389    0.0754565    470.722
149.184    66.0779    0.0809564    0.0744261    465.65
155.51    66.2758    -0.573476    0.0734019    460.578
161.837    66.4737    -1.22791    0.0723838    455.507
168.163    66.5659    -1.8008    0.0716354    448.094
174.49    66.6382    -2.35841    0.0709384    440.242
180.816    66.7106    -2.91601    0.0702429    432.39
187.143    66.7829    -3.47362    0.0695489    424.538
193.469    66.8465    -4.02139    0.0688961    416.615
199.796    66.8482    -4.49984    0.0685236    408.193
206.122    66.8498    -4.97829    0.0681512    399.771
212.449    66.8514    -5.45674    0.0677788    391.35
218.776    66.8531    -5.93519    0.0674064    382.928
225.102    66.8491    -6.40239    0.0670471    374.944
231.429    66.8184    -6.81631    0.0667496    369.038
237.755    66.7878    -7.23022    0.0664518    363.132
244.082    66.7572    -7.64414    0.0661538    357.226
250.408    66.7265    -8.05805    0.0658555    351.32
256.735    66.6959    -8.47197    0.0655569    345.414
263.061    66.6493    -8.83075    0.0652958    341.431
269.388    66.6024    -9.18845    0.0650351    337.485
275.714    66.5555    -9.54616    0.064774    333.54
282.041    66.5086    -9.90386    0.0645126    329.594
288.367    66.4618    -10.2616    0.0642507    325.648
294.694    66.4089    -10.5922    0.064024    322.656
301.02    66.3507    -10.899    0.0638281    320.505
307.347    66.2925    -11.2058    0.0636319    318.353
313.673    66.2343    -11.5126    0.0634354    316.201
320    66.1761    -11.8194    0.0632385    314.05
