---------TurbSim v2.00.* Profile Input File------------------------
Made up profiles
-------- User-Defined Profiles (Used only with USR wind profile or USRVKM spectral model) -------------------
50               NumUSRz        - Number of Heights
1.092           StdScale1      - u-component scaling factor for the input standard deviation
1.0             StdScale2      - v-component scaling factor for the input standard deviation
0.534           StdScale3      - w-component scaling factor for the input standard deviation
-----------------------------------------------------------------------------------
Height    Wind Speed       Wind --Angle--        Standard Deviation    Length Scale
 (m)        (m/s)      (deg, cntr-clockwise )              (m/s)              (m)
-----------------------------------------------------------------------------------
10    30.821    15.104    2.41049    277.93
16.3265    32.0732    14.5228    2.55621    292.747
22.6531    33.4851    13.8675    2.72051    309.455
28.9796    34.897    13.2121    2.88482    326.162
35.3061    36.1003    12.517    3.01201    344.771
41.6327    37.0109    11.7661    3.08715    366.045
47.9592    37.9215    11.0152    3.16229    387.32
54.2857    38.8321    10.2643    3.23743    408.595
60.6122    39.5455    9.49795    3.27276    428.047
66.9388    40.2018    8.72714    3.29658    446.973
73.2653    40.8581    7.95633    3.3204    465.899
79.5918    41.5144    7.18551    3.34422    484.824
85.9184    41.9672    6.46236    3.3325    497.51
92.2449    42.4107    5.74139    3.31915    509.911
98.5714    42.8542    5.02041    3.30581    522.312
104.898    43.2977    4.29943    3.29247    534.714
111.224    43.5842    3.65656    3.26146    540.073
117.551    43.8625    3.01781    3.22951    545.059
123.878    44.1407    2.37906    3.19757    550.046
130.204    44.419    1.74031    3.16563    555.032
136.531    44.6052    1.16668    3.13333    557.734
142.857    44.7601    0.615151    3.10091    559.661
149.184    44.915    0.0636264    3.0685    561.587
155.51    45.0699    -0.487898    3.03608    563.514
161.837    45.1984    -1.0126    3.00684    563.381
168.163    45.275    -1.48449    2.98387    559.194
174.49    45.3516    -1.95638    2.96089    555.008
180.816    45.4282    -2.42827    2.93791    550.821
187.143    45.5048    -2.90017    2.91494    546.634
193.469    45.5473    -3.32368    2.89839    539.848
199.796    45.5758    -3.72749    2.88446    532.003
206.122    45.6043    -4.1313    2.87053    524.159
212.449    45.6329    -4.53512    2.8566    516.314
218.776    45.6614    -4.93893    2.84267    508.47
225.102    45.6666    -5.29649    2.83173    502.544
231.429    45.6679    -5.64635    2.82129    496.937
237.755    45.6692    -5.9962    2.81086    491.33
244.082    45.6704    -6.34606    2.80042    485.723
250.408    45.6717    -6.69591    2.78998    480.116
256.735    45.6608    -7.00917    2.78254    476.907
263.061    45.6462    -7.31119    2.77604    474.433
269.388    45.6316    -7.6132    2.76953    471.96
275.714    45.6169    -7.91521    2.76302    469.487
282.041    45.6023    -8.21723    2.75651    467.013
288.367    45.5835    -8.50123    2.75024    465.832
294.694    45.5591    -8.76056    2.7443    466.42
301.02    45.5347    -9.01989    2.73835    467.008
307.347    45.5104    -9.27922    2.73241    467.595
313.673    45.486    -9.53855    2.72647    468.183
320    45.4616    -9.79788    2.72052    468.771
